data_image0
_chemical_formula_structural       H24O12
_chemical_formula_sum              "H24 O12"
_cell_length_a       7.50577927899161
_cell_length_b       7.505778534589683
_cell_length_c       7.072207002581567
_cell_angle_alpha    90.0
_cell_angle_beta     90.0
_cell_angle_gamma    60.00000102757301

_space_group_name_H-M_alt    "P 1"
_space_group_IT_number       1

loop_
  _space_group_symop_operation_xyz
  'x, y, z'

loop_
  _atom_site_type_symbol
  _atom_site_label
  _atom_site_symmetry_multiplicity
  _atom_site_fract_x
  _atom_site_fract_y
  _atom_site_fract_z
  _atom_site_occupancy
  H   H1        1.0  0.9999927932517643  0.3355940440577341  0.20321229010466157  1.0000
  H   H2        1.0  0.6643916595028633  0.9999928209594376  0.20321228839552538  1.0000
  H   H3        1.0  0.33559384056657904  0.6643917736246517  0.20321227661547286  1.0000
  H   H4        1.0  0.33559411821359314  0.9999924558887416  0.7032127068491878  1.0000
  H   H5        1.0  0.9999929845353839  0.664391233825082  0.7032127075373111  1.0000
  H   H6        1.0  0.6643919372672812  0.3355935031698478  0.7032126950281405  1.0000
  H   H7        1.0  0.5382734989416498  0.9999933437312984  0.016881432432758563  1.0000
  H   H8        1.0  0.9999925387598568  0.4617124078933103  0.01688160138860706  1.0000
  H   H9        1.0  0.4617115700473264  0.5382743124553124  0.016881263142580302  1.0000
  H   H10       1.0  0.4617119496219817  0.9999919335249114  0.516881568422852  1.0000
  H   H11       1.0  0.9999932390289408  0.5382731991013678  0.5168817364389782  1.0000
  H   H12       1.0  0.5382745368930966  0.46171063564062853  0.5168813991145566  1.0000
  H   H13       1.0  0.3312681494848713  0.8748969607159954  0.9852875660678474  1.0000
  H   H14       1.0  0.20617175864302914  0.12508977491930096  0.985287302053351  1.0000
  H   H15       1.0  0.8748961315168571  0.7938141374556434  0.9852872984649068  1.0000
  H   H16       1.0  0.7938133243150773  0.3312689787032651  0.9852874368395275  1.0000
  H   H17       1.0  0.6687169357197656  0.20617256425895897  0.9852875732340848  1.0000
  H   H18       1.0  0.12508972701461626  0.20617104032266334  0.4852873465383641  1.0000
  H   H19       1.0  0.6687176444201504  0.1250884001524224  0.48528761476142995  1.0000
  H   H20       1.0  0.7938141177011997  0.8748954235438128  0.48528735174759036  1.0000
  H   H21       1.0  0.20617235492679273  0.6687163182846667  0.485287486543353  1.0000
  H   H22       1.0  0.33126882593583085  0.7938128127084162  0.4852876219463555  1.0000
  H   H23       1.0  0.8748967611258683  0.3312675199899005  0.48528747412263723  1.0000
  H   H24       1.0  0.1250889358812095  0.6687177385819838  0.9852874260651857  1.0000
  O   O1        1.0  0.9999925573198961  0.3335530002868988  0.060622209734346816  1.0000
  O   O2        1.0  0.6664328578931696  0.99999329932213  0.06062221298364005  1.0000
  O   O3        1.0  0.33355226443593633  0.6664335922013298  0.06062220290749333  1.0000
  O   O4        1.0  0.333553286850373  0.9999919773814656  0.5606216184252827  1.0000
  O   O5        1.0  0.6664331464163625  0.3335520514412618  0.5606216083964871  1.0000
  O   O6        1.0  0.3336759862208986  0.9999933049126507  0.9363637435230929  1.0000
  O   O7        1.0  0.6663091672284355  0.33367670545806694  0.9363637301973834  1.0000
  O   O8        1.0  0.999993209969159  0.33367554000343536  0.43636362567969916  1.0000
  O   O9        1.0  0.6663096545095711  0.9999919730798287  0.43636362029033254  1.0000
  O   O10       1.0  0.33367674759141025  0.666308435472001  0.43636360697823484  1.0000
  O   O11       1.0  0.9999932204724488  0.6664319137155398  0.5606216180183636  1.0000
  O   O12       1.0  0.9999925677764767  0.6663098732155525  0.9363637490099812  1.0000
