data_image0
_chemical_formula_structural       H24O12
_chemical_formula_sum              "H24 O12"
_cell_length_a       7.505779278991579
_cell_length_b       7.5057785345894725
_cell_length_c       7.072207002581937
_cell_angle_alpha    90.0
_cell_angle_beta     90.0
_cell_angle_gamma    60.00000102757222

_space_group_name_H-M_alt    "P 1"
_space_group_IT_number       1

loop_
  _space_group_symop_operation_xyz
  'x, y, z'

loop_
  _atom_site_type_symbol
  _atom_site_label
  _atom_site_symmetry_multiplicity
  _atom_site_fract_x
  _atom_site_fract_y
  _atom_site_fract_z
  _atom_site_occupancy
  H   H1        1.0  0.9999927932517635  0.33559404405773624  0.203212290104661  1.0000
  H   H2        1.0  0.6643916595028628  0.9999928209594388  0.20321228839552863  1.0000
  H   H3        1.0  0.33559384056657937  0.6643917736246521  0.20321227661547236  1.0000
  H   H4        1.0  0.33559411821359614  0.9999924558887432  0.7032127068491898  1.0000
  H   H5        1.0  0.9999929845353864  0.6643912338250825  0.7032127075373107  1.0000
  H   H6        1.0  0.6643919372672827  0.33559350316985037  0.703212695028141  1.0000
  H   H7        1.0  0.5382734989416496  0.9999933437312993  0.016881432432765516  1.0000
  H   H8        1.0  0.999992538759856  0.46171240789331414  0.016881601388610962  1.0000
  H   H9        1.0  0.46171157004732966  0.53827431245531  0.01688126314258449  1.0000
  H   H10       1.0  0.46171194962198625  0.9999919335249129  0.5168815684228586  1.0000
  H   H11       1.0  0.9999932390289435  0.5382731991013662  0.516881736438982  1.0000
  H   H12       1.0  0.5382745368930968  0.4617106356406324  0.5168813991145614  1.0000
  H   H13       1.0  0.3312681494848755  0.8748969607159942  0.9852875660678422  1.0000
  H   H14       1.0  0.20617175864303033  0.12508977491930473  0.9852873020533464  1.0000
  H   H15       1.0  0.8748961315168563  0.7938141374556472  0.9852872984649024  1.0000
  H   H16       1.0  0.79381332431508  0.33126897870326627  0.9852874368395219  1.0000
  H   H17       1.0  0.6687169357197675  0.20617256425895855  0.9852875732340791  1.0000
  H   H18       1.0  0.12508972701461757  0.20617104032266365  0.4852873465383582  1.0000
  H   H19       1.0  0.6687176444201484  0.12508840015242684  0.48528761476142485  1.0000
  H   H20       1.0  0.7938141177012005  0.8748954235438121  0.48528735174758497  1.0000
  H   H21       1.0  0.20617235492679173  0.668716318284668  0.4852874865433476  1.0000
  H   H22       1.0  0.3312688259358306  0.7938128127084189  0.48528762194634995  1.0000
  H   H23       1.0  0.874896761125867  0.33126751998990206  0.4852874741226318  1.0000
  H   H24       1.0  0.1250889358812115  0.6687177385819842  0.9852874260651795  1.0000
  O   O1        1.0  0.9999925573198938  0.33355300028690293  0.06062220973435228  1.0000
  O   O2        1.0  0.6664328578931665  0.999993299322131  0.06062221298364602  1.0000
  O   O3        1.0  0.3335522644359368  0.6664335922013286  0.06062220290749886  1.0000
  O   O4        1.0  0.333553286850377  0.999991977381467  0.5606216184252907  1.0000
  O   O5        1.0  0.6664331464163632  0.33355205144126693  0.560621608396492  1.0000
  O   O6        1.0  0.33367598622090017  0.9999933049126505  0.9363637435230874  1.0000
  O   O7        1.0  0.6663091672284387  0.3336767054580659  0.9363637301973747  1.0000
  O   O8        1.0  0.9999932099691621  0.33367554000343347  0.4363636256796901  1.0000
  O   O9        1.0  0.666309654509573  0.9999919730798292  0.4363636202903268  1.0000
  O   O10       1.0  0.3336767475914097  0.6663084354720051  0.4363636069782259  1.0000
  O   O11       1.0  0.999993220472453  0.6664319137155387  0.5606216180183698  1.0000
  O   O12       1.0  0.9999925677764803  0.6663098732155546  0.9363637490099721  1.0000
