data_image0
_chemical_formula_structural       Si96O192C6H6
_chemical_formula_sum              "Si96 O192 C6 H6"
_cell_length_a       20.31836
_cell_length_b       20.17146
_cell_length_c       13.58586295
_cell_angle_alpha    90.0
_cell_angle_beta     90.0
_cell_angle_gamma    90.0

_space_group_name_H-M_alt    "P 1"
_space_group_IT_number       1

loop_
  _space_group_symop_operation_xyz
  'x, y, z'

loop_
  _atom_site_type_symbol
  _atom_site_label
  _atom_site_symmetry_multiplicity
  _atom_site_fract_x
  _atom_site_fract_y
  _atom_site_fract_z
  _atom_site_occupancy
  Si  Si1       1.0  0.07249436686819212  0.9462731693194246  0.6700488092293025  1.0000
  Si  Si2       1.0  0.5800133856275801  0.5573047621738833  0.832656073201445  1.0000
  Si  Si3       1.0  0.584054937111066  0.9495921176255958  0.8175943808560207  1.0000
  Si  Si4       1.0  0.08333062560167259  0.5566421394881679  0.6573819880907896  1.0000
  Si  Si5       1.0  0.19691421364716447  0.9602059131267643  0.800581917102292  1.0000
  Si  Si6       1.0  0.691480918538701  0.5280926681558995  0.6883353117440361  1.0000
  Si  Si7       1.0  0.6898510127293738  0.9759989685476411  0.6625454501585415  1.0000
  Si  Si8       1.0  0.19014127193336472  0.535536694319598  0.8190970408692367  1.0000
  Si  Si9       1.0  0.2767286650595816  0.06771431884454572  0.5433570895472635  1.0000
  Si  Si10      1.0  0.7866328787854925  0.43592385077728635  0.9669250483643367  1.0000
  Si  Si11      1.0  0.7806371951771698  0.055162698832905505  0.9639968691131247  1.0000
  Si  Si12      1.0  0.2750179537127997  0.4303141435969434  0.5346408119846372  1.0000
  Si  Si13      1.0  0.1197942120820775  0.06787924339636299  0.5338580832511636  1.0000
  Si  Si14      1.0  0.6285280387295038  0.4389508757918366  0.973946538007731  1.0000
  Si  Si15      1.0  0.6249627878431132  0.06264804149030363  0.977650510157693  1.0000
  Si  Si16      1.0  0.12162830440055203  0.4315466609754574  0.5282452435088048  1.0000
  Si  Si17      1.0  0.43128406037692024  0.9732742797050883  0.820776268393021  1.0000
  Si  Si18      1.0  0.9381136222608517  0.5249179735626474  0.6772271705420081  1.0000
  Si  Si19      1.0  0.92306529208066  0.975846428810805  0.6768372890880663  1.0000
  Si  Si20      1.0  0.43079121848416907  0.5313733004948575  0.8120367683379288  1.0000
  Si  Si21      1.0  0.32123243106234955  0.9376866893125237  0.6730970164099881  1.0000
  Si  Si22      1.0  0.8217967181898539  0.5572849054555298  0.8175917500330738  1.0000
  Si  Si23      1.0  0.8025376926582657  0.9366665503637317  0.811012173797911  1.0000
  Si  Si24      1.0  0.31104915578816406  0.5541105320090861  0.6800859996162407  1.0000
  Si  Si25      1.0  0.0764623845625336  0.1721032810713751  0.6806263066270664  1.0000
  Si  Si26      1.0  0.5814135893841825  0.3266315072384448  0.8316613488287838  1.0000
  Si  Si27      1.0  0.5833297170637788  0.17295203996141084  0.8296485730411405  1.0000
  Si  Si28      1.0  0.08156172191062665  0.3285130574584091  0.6867691650017712  1.0000
  Si  Si29      1.0  0.19510091823355824  0.117212231737316  0.8127576779360931  1.0000
  Si  Si30      1.0  0.6917742753352141  0.3729825886673548  0.6847887895851326  1.0000
  Si  Si31      1.0  0.6912108104197385  0.13121363391643442  0.670171877230662  1.0000
  Si  Si32      1.0  0.1875297878864239  0.3783372288371789  0.8366380792910912  1.0000
  Si  Si33      1.0  0.2781968519112763  0.8291281948852487  0.5307695965533054  1.0000
  Si  Si34      1.0  0.7838958974051056  0.6665677267287544  0.9620246166990813  1.0000
  Si  Si35      1.0  0.7788251859894204  0.8250038907942211  0.9669736063398167  1.0000
  Si  Si36      1.0  0.2765602522053946  0.6771668381465694  0.5414194120808498  1.0000
  Si  Si37      1.0  0.12423099536576772  0.8353121340250036  0.5300244561203968  1.0000
  Si  Si38      1.0  0.6314583407814409  0.6698384343027227  0.9620295801673754  1.0000
  Si  Si39      1.0  0.6250993917324035  0.8283755770777128  0.9498521478166391  1.0000
  Si  Si40      1.0  0.11939177965150732  0.6819588817566997  0.5268101831617549  1.0000
  Si  Si41      1.0  0.4337140103827278  0.1302572160369155  0.8125567116809462  1.0000
  Si  Si42      1.0  0.9296179001159542  0.36454211103212164  0.6770956885738347  1.0000
  Si  Si43      1.0  0.9300406100689229  0.1335631538817716  0.6762505300408613  1.0000
  Si  Si44      1.0  0.43881612074005977  0.3726984579698247  0.8132160574312285  1.0000
  Si  Si45      1.0  0.3137951439486258  0.17669245974262648  0.6878058474011031  1.0000
  Si  Si46      1.0  0.815938680927004  0.32464467951253906  0.8180629429947253  1.0000
  Si  Si47      1.0  0.8066667315669178  0.17101183474076742  0.8125985784362707  1.0000
  Si  Si48      1.0  0.3092973711460965  0.33155152234890284  0.7006981134017696  1.0000
  Si  Si49      1.0  0.4231650421096979  0.06385408026984661  0.17516688544248862  1.0000
  Si  Si50      1.0  0.9240465220126034  0.43965390586501923  0.34368889353473137  1.0000
  Si  Si51      1.0  0.9220401016617483  0.05498617636006517  0.33187510882405896  1.0000
  Si  Si52      1.0  0.4188015903350467  0.44932827871656295  0.16218915081871926  1.0000
  Si  Si53      1.0  0.31503018836165914  0.018345119341882047  0.31221324332585  1.0000
  Si  Si54      1.0  0.8111819069058723  0.46866336507124423  0.19194723887598178  1.0000
  Si  Si55      1.0  0.8105186711427497  0.02211652657269231  0.18489163855432536  1.0000
  Si  Si56      1.0  0.3058540441256086  0.47649387689339295  0.31795499490152007  1.0000
  Si  Si57      1.0  0.22059843953941166  0.9372614394297686  0.02797595952489717  1.0000
  Si  Si58      1.0  0.7147676040290654  0.5711911232007996  0.46325343838390487  1.0000
  Si  Si59      1.0  0.7282396757907625  0.9367881268386126  0.4608610588847432  1.0000
  Si  Si60      1.0  0.21747695714614765  0.5614960408914377  0.037594592252235264  1.0000
  Si  Si61      1.0  0.3796796826613959  0.9438167971976248  0.037915773248691574  1.0000
  Si  Si62      1.0  0.8712440084239083  0.5643919421301185  0.47432269033745855  1.0000
  Si  Si63      1.0  0.8846650785791766  0.926636077110928  0.46227490503280844  1.0000
  Si  Si64      1.0  0.3750568625125257  0.5649935151446648  0.024245647126890826  1.0000
  Si  Si65      1.0  0.07190226947450484  0.03564137051061252  0.31557776865399634  1.0000
  Si  Si66      1.0  0.5698342744197857  0.4731011128098809  0.18338720986435392  1.0000
  Si  Si67      1.0  0.5727780545772394  0.026554133468772216  0.1927122251001362  1.0000
  Si  Si68      1.0  0.0796919455605669  0.47408485469073636  0.32518478518878335  1.0000
  Si  Si69      1.0  0.19198780679149302  0.055429614316464954  0.17358626129818278  1.0000
  Si  Si70      1.0  0.6819900730669207  0.4484349629129474  0.3293250992937479  1.0000
  Si  Si71      1.0  0.6964068785571276  0.06448541756521342  0.324620465496452  1.0000
  Si  Si72      1.0  0.18836391032543967  0.43907896498319904  0.17742693400274587  1.0000
  Si  Si73      1.0  0.43178755184965717  0.8238022820856794  0.17335870755269178  1.0000
  Si  Si74      1.0  0.9265342767329646  0.6629537388964408  0.32047453231522555  1.0000
  Si  Si75      1.0  0.9327144022942797  0.8229893708735014  0.30538004028665694  1.0000
  Si  Si76      1.0  0.4205704267962572  0.6733883237009121  0.1685098860061738  1.0000
  Si  Si77      1.0  0.3285388550552309  0.8639951472526034  0.3235606572197904  1.0000
  Si  Si78      1.0  0.8082111294415494  0.6250463725977198  0.18016850442319532  1.0000
  Si  Si79      1.0  0.8093958833291663  0.8694109891401018  0.1836531554294827  1.0000
  Si  Si80      1.0  0.315692160243248  0.6360291525253997  0.32830232215760724  1.0000
  Si  Si81      1.0  0.23296367039465787  0.16518970486023324  0.025978598510740906  1.0000
  Si  Si82      1.0  0.7251643113420572  0.330756355514177  0.4666467546693455  1.0000
  Si  Si83      1.0  0.7147206153941559  0.18160189426050471  0.4722168888800693  1.0000
  Si  Si84      1.0  0.2293447748243461  0.3183275577970063  0.040696465585942046  1.0000
  Si  Si85      1.0  0.3860610828334571  0.17680128091868413  0.024792714179411035  1.0000
  Si  Si86      1.0  0.8829211922615802  0.31958470556915564  0.471863263937901  1.0000
  Si  Si87      1.0  0.8692999771142946  0.1662207923472074  0.46317286565885757  1.0000
  Si  Si88      1.0  0.38180812767369027  0.33014148802317733  0.023298612179802686  1.0000
  Si  Si89      1.0  0.07211985120846369  0.8756307418501189  0.32092437860194967  1.0000
  Si  Si90      1.0  0.5691584684984419  0.6300664065962504  0.17033160363214178  1.0000
  Si  Si91      1.0  0.5769102652477857  0.8713675967926962  0.15912368746513816  1.0000
  Si  Si92      1.0  0.07651317419319277  0.6294228098511461  0.31788985881091936  1.0000
  Si  Si93      1.0  0.19923406741488983  0.8325696659537782  0.1900140707661121  1.0000
  Si  Si94      1.0  0.6860833097257849  0.6786767908222806  0.2982586678456079  1.0000
  Si  Si95      1.0  0.6896913908405993  0.8290782225976702  0.30969578527950636  1.0000
  Si  Si96      1.0  0.19343665979931454  0.6750105312158863  0.18648076639106684  1.0000
  O   O1        1.0  0.12922114432464038  0.9415681877266197  0.7469259828651518  1.0000
  O   O2        1.0  0.6279474003315229  0.5535638966143254  0.7422051743868062  1.0000
  O   O3        1.0  0.6255987064408741  0.9708643102432843  0.722709233865781  1.0000
  O   O4        1.0  0.13378927068916982  0.5621589839307615  0.7471797784475662  1.0000
  O   O5        1.0  0.19899673241344287  0.9353640426126815  0.9150697854640143  1.0000
  O   O6        1.0  0.6918383551133064  0.5442105655713567  0.5717087204239757  1.0000
  O   O7        1.0  0.7015470633948803  0.9527618909538527  0.5516143852312303  1.0000
  O   O8        1.0  0.18666036899631663  0.5604222942216379  0.9311038758859259  1.0000
  O   O9        1.0  0.19802537650676533  0.06569483993721824  0.5447023894790577  1.0000
  O   O10       1.0  0.707946886559742  0.44069640060759113  0.968963265303659  1.0000
  O   O11       1.0  0.7024356447567619  0.048184150591975  0.9786217294353025  1.0000
  O   O12       1.0  0.19983499248955136  0.4357172996897597  0.5227629895309668  1.0000
  O   O13       1.0  0.4108616802241914  0.954965003921382  0.9299416671945745  1.0000
  O   O14       1.0  0.9214599345124311  0.5544724355103696  0.5692398215381673  1.0000
  O   O15       1.0  0.8945100015946169  0.9463626707734591  0.5737372062920743  1.0000
  O   O16       1.0  0.3992935033634605  0.558501791788993  0.9155196558934815  1.0000
  O   O17       1.0  0.38468559603235697  0.9408482258101297  0.7412481849009083  1.0000
  O   O18       1.0  0.8855748687394062  0.5537549880375541  0.752750850176948  1.0000
  O   O19       1.0  0.8709865644176006  0.9519944925057482  0.7549903333891647  1.0000
  O   O20       1.0  0.3823171179662138  0.5519840058676961  0.7250406391005144  1.0000
  O   O21       1.0  0.2599489348057619  0.9357694341411082  0.7441844948097316  1.0000
  O   O22       1.0  0.7585575209318074  0.5464552380442467  0.7459747435476669  1.0000
  O   O23       1.0  0.742952388775472  0.9373990439958237  0.73087714954463  1.0000
  O   O24       1.0  0.25572144331530694  0.5523833384395576  0.7651830199715065  1.0000
  O   O25       1.0  0.13137583712464984  0.14415318345821276  0.760102941859869  1.0000
  O   O26       1.0  0.6312009073074795  0.33754464580154336  0.7402216018232393  1.0000
  O   O27       1.0  0.6297408106756648  0.15689587382370934  0.7344197327561  1.0000
  O   O28       1.0  0.1264866635397739  0.35321664078852005  0.7766218281334863  1.0000
  O   O29       1.0  0.1983850706946821  0.13962281267692075  0.9268710392813141  1.0000
  O   O30       1.0  0.6977606912172045  0.3452901583722745  0.573700972966167  1.0000
  O   O31       1.0  0.6911872865231249  0.15176921065703725  0.5563340341144836  1.0000
  O   O32       1.0  0.19150322511265674  0.3439474658254782  0.9426827317583091  1.0000
  O   O33       1.0  0.20173897735840884  0.8497230949073592  0.5339515801386763  1.0000
  O   O34       1.0  0.7077455369921588  0.6541756149530078  0.9555810882075768  1.0000
  O   O35       1.0  0.7004402023096352  0.8363326515780216  0.9699197910722337  1.0000
  O   O36       1.0  0.1974487129866781  0.6748146994813464  0.5486297294571192  1.0000
  O   O37       1.0  0.41028463060010756  0.16006414880231776  0.9164804818673664  1.0000
  O   O38       1.0  0.8954597091989708  0.33083362260342086  0.583514147623578  1.0000
  O   O39       1.0  0.9147249078173632  0.16519884376242475  0.5670937727293943  1.0000
  O   O40       1.0  0.4201257363291132  0.3473607964916769  0.9230186069262534  1.0000
  O   O41       1.0  0.3827952674330015  0.15973741846152933  0.736638382105864  1.0000
  O   O42       1.0  0.8844883019101936  0.34079660738488937  0.7658071047301416  1.0000
  O   O43       1.0  0.8763867522772507  0.15457036367223792  0.7556222662322676  1.0000
  O   O44       1.0  0.3845313801409169  0.3436864311259572  0.7361860992422273  1.0000
  O   O45       1.0  0.25898958168867964  0.1432845978426946  0.7601714134029299  1.0000
  O   O46       1.0  0.7588119491927497  0.3522748163990113  0.7447492096922705  1.0000
  O   O47       1.0  0.7515810205646518  0.16627675121186072  0.7272509639146625  1.0000
  O   O48       1.0  0.2567133506345985  0.36372957802756967  0.7801777672135284  1.0000
  O   O49       1.0  0.1994581738388335  0.03995465125479267  0.8001916872715104  1.0000
  O   O50       1.0  0.6830968463498037  0.4497285889072977  0.6998151875954262  1.0000
  O   O51       1.0  0.7060564896477866  0.05350227683073016  0.661351247768917  1.0000
  O   O52       1.0  0.18166293923328458  0.4568052925767397  0.8393211898254869  1.0000
  O   O53       1.0  0.4251030647158531  0.0513986764963964  0.8093604819559879  1.0000
  O   O54       1.0  0.9358988229364968  0.4443026148826114  0.6611172980366329  1.0000
  O   O55       1.0  0.9281028416171384  0.05420563955211968  0.6594907482855183  1.0000
  O   O56       1.0  0.43079906882248375  0.4516915894536142  0.8185093283308882  1.0000
  O   O57       1.0  0.08436486812912067  0.8793712984087418  0.605376969962736  1.0000
  O   O58       1.0  0.590350862323534  0.6267207153076673  0.8858576456492224  1.0000
  O   O59       1.0  0.6046780848454304  0.8759950315445684  0.858660809911968  1.0000
  O   O60       1.0  0.084631470108808  0.6189277357216582  0.5845590425303089  1.0000
  O   O61       1.0  0.0849335169275473  0.011354470856348525  0.6050583720925875  1.0000
  O   O62       1.0  0.6002771517484677  0.5003736933271068  0.9101613257478061  1.0000
  O   O63       1.0  0.5966337140399126  0.0033462215080118153  0.9029025442215284  1.0000
  O   O64       1.0  0.09954242709549393  0.48849699188853957  0.6045062561889011  1.0000
  O   O65       1.0  0.09329707353349385  0.13534100481571487  0.5805005343440477  1.0000
  O   O66       1.0  0.6041487211074121  0.3737593893550591  0.9153330741496991  1.0000
  O   O67       1.0  0.6087534332003173  0.13147100819672947  0.926258436605236  1.0000
  O   O68       1.0  0.10538369597743126  0.36374466900264035  0.5860264682708285  1.0000
  O   O69       1.0  0.31822886748733664  0.8738503347303567  0.6079220138165754  1.0000
  O   O70       1.0  0.816554895276981  0.6267102751610444  0.8705157229633322  1.0000
  O   O71       1.0  0.8015147884967093  0.8706183610903722  0.8762070490340107  1.0000
  O   O72       1.0  0.30139170184010916  0.6231311748381129  0.6205202610261867  1.0000
  O   O73       1.0  0.3098571479686353  0.004566358166439118  0.605840321243635  1.0000
  O   O74       1.0  0.8142881692715357  0.49751266690660967  0.8931408771498022  1.0000
  O   O75       1.0  0.8012551008053799  0.9989475424386732  0.8883363429630357  1.0000
  O   O76       1.0  0.2945423021346211  0.49034384283537236  0.6121165511241963  1.0000
  O   O77       1.0  0.2973394875865966  0.13912428832617968  0.5885713607908873  1.0000
  O   O78       1.0  0.8095706067320394  0.37259525691248924  0.9090879613944582  1.0000
  O   O79       1.0  0.796655703609937  0.120447930591043  0.8984948314232774  1.0000
  O   O80       1.0  0.29775160913577675  0.36387173729616007  0.5956744721173564  1.0000
  O   O81       1.0  0.5059850283192147  0.9513410907985838  0.8024911492280289  1.0000
  O   O82       1.0  0.010244707456704185  0.5477849682670466  0.7025388246684764  1.0000
  O   O83       1.0  0.995750696434161  0.9527897249827231  0.7028803129506028  1.0000
  O   O84       1.0  0.5059805122066938  0.5515864199220086  0.7970273030024935  1.0000
  O   O85       1.0  0.5127528388117938  0.14359998968840135  0.8045920828312197  1.0000
  O   O86       1.0  0.004447139803606197  0.33744602101186527  0.6897191480207003  1.0000
  O   O87       1.0  0.003399839125795586  0.15724019133964523  0.7069449176211511  1.0000
  O   O88       1.0  0.511372775115708  0.35311648318961547  0.7956964394374374  1.0000
  O   O89       1.0  0.09298786599902749  0.2507260280118544  0.6822501346519176  1.0000
  O   O90       1.0  0.5776261411846232  0.24968206798119724  0.8600305323262516  1.0000
  O   O91       1.0  0.30156790070655315  0.25227788633048875  0.6935422057970928  1.0000
  O   O92       1.0  0.8125933523670217  0.24773188911462035  0.8452068611512087  1.0000
  O   O93       1.0  0.28975392285597856  0.7528328771938174  0.5572592429912595  1.0000
  O   O94       1.0  0.7874699940841682  0.7448173625012766  0.9496588593954571  1.0000
  O   O95       1.0  0.11078971792014711  0.7581928901031457  0.5417106017177951  1.0000
  O   O96       1.0  0.617866987148569  0.7495519317391999  0.949125758036592  1.0000
  O   O97       1.0  0.37669073217523463  0.057067941041451645  0.2666847647686598  1.0000
  O   O98       1.0  0.8746996561730376  0.4456897861632227  0.2521500929022695  1.0000
  O   O99       1.0  0.8791037585710657  0.0361136432414907  0.2364471279316122  1.0000
  O   O100      1.0  0.36894331830915494  0.45564830731141925  0.24991529779858412  1.0000
  O   O101      1.0  0.2936678880086779  0.04645249073691245  0.41896213556312967  1.0000
  O   O102      1.0  0.8090057067105809  0.4394386310658723  0.07822243989293297  1.0000
  O   O103      1.0  0.8076961602708093  0.04859198040697104  0.07118987763673858  1.0000
  O   O104      1.0  0.30764644267549157  0.4446329804089541  0.4260857875796547  1.0000
  O   O105      1.0  0.3005041595876833  0.9398073139475278  0.02415483486089487  1.0000
  O   O106      1.0  0.793560782858459  0.5672447402419061  0.46823490479859436  1.0000
  O   O107      1.0  0.8060142336290921  0.9278636039731383  0.45112623523115997  1.0000
  O   O108      1.0  0.2975810887788188  0.5553069708389973  0.02866431947924221  1.0000
  O   O109      1.0  0.0922213830742245  0.0560484132036055  0.4281963012883183  1.0000
  O   O110      1.0  0.6034240508092188  0.4416528912136256  0.08324123577295472  1.0000
  O   O111      1.0  0.5970329960193638  0.05571299167239258  0.08294100339058699  1.0000
  O   O112      1.0  0.09850286745583799  0.44024821138380665  0.42607383397754656  1.0000
  O   O113      1.0  0.12587173492348794  0.061800453809491236  0.2368425683993817  1.0000
  O   O114      1.0  0.6128972492366509  0.45520949375999553  0.27658529743964483  1.0000
  O   O115      1.0  0.6257338203969217  0.05316777793972276  0.2682681319849469  1.0000
  O   O116      1.0  0.12049673108459542  0.45270512888011083  0.23151892055557655  1.0000
  O   O117      1.0  0.25177824632499873  0.028865348646057352  0.24231315869412626  1.0000
  O   O118      1.0  0.741393198171506  0.453492448538678  0.2501104940853242  1.0000
  O   O119      1.0  0.7496799529588017  0.05546600672435213  0.24150500023997373  1.0000
  O   O120      1.0  0.2427163001836763  0.44801996751846423  0.26035835691983045  1.0000
  O   O121      1.0  0.3936639486159316  0.8355049672160567  0.274443392276381  1.0000
  O   O122      1.0  0.8735588881189229  0.6488418541840799  0.23396724674011232  1.0000
  O   O123      1.0  0.8772972332412655  0.841978076748039  0.22883189389158387  1.0000
  O   O124      1.0  0.3817901393616414  0.6483123330190279  0.2664674145708205  1.0000
  O   O125      1.0  0.3074647633962584  0.8328001880875257  0.43060157654541925  1.0000
  O   O126      1.0  0.8106279484663133  0.6418455929813707  0.06351712667615274  1.0000
  O   O127      1.0  0.8080653137851677  0.8485417884476384  0.06721702370772113  1.0000
  O   O128      1.0  0.30567004147972576  0.6548288945867082  0.4382875130504684  1.0000
  O   O129      1.0  0.30884645778497877  0.15926062600327395  0.026553882615163584  1.0000
  O   O130      1.0  0.8036291383753413  0.3355566714556111  0.4596198885548158  1.0000
  O   O131      1.0  0.7930673389486159  0.1709276432147202  0.4732106571853797  1.0000
  O   O132      1.0  0.30384064284715895  0.3288504507358417  0.01257851552226942  1.0000
  O   O133      1.0  0.08974014679334356  0.8427839428578794  0.4256297112874969  1.0000
  O   O134      1.0  0.6038045870335992  0.6428323816421815  0.0640847477414013  1.0000
  O   O135      1.0  0.5903459202908108  0.8583251286718958  0.045021861640375235  1.0000
  O   O136      1.0  0.08416981926690935  0.6647048162106263  0.4200896590819798  1.0000
  O   O137      1.0  0.13385236815372895  0.8533105484679839  0.2576177956366033  1.0000
  O   O138      1.0  0.6175078755371988  0.6572875794811084  0.2533687736780828  1.0000
  O   O139      1.0  0.6286791813906241  0.8507294767954328  0.2380175905572491  1.0000
  O   O140      1.0  0.1248507343112338  0.6582147919882844  0.23642627610931408  1.0000
  O   O141      1.0  0.26719952845603684  0.851254710169715  0.24801194428359816  1.0000
  O   O142      1.0  0.7434062896316435  0.6620412101057633  0.22229334589305574  1.0000
  O   O143      1.0  0.7492838731570854  0.8325165264685848  0.2318583463997037  1.0000
  O   O144      1.0  0.258167222256127  0.6687122371905653  0.2615766998444512  1.0000
  O   O145      1.0  0.3372621589045573  0.9442378556633977  0.33190446286667424  1.0000
  O   O146      1.0  0.8090641654149252  0.5469385065830634  0.19725377628662155  1.0000
  O   O147      1.0  0.7984147610830795  0.945355506046662  0.18522134076142732  1.0000
  O   O148      1.0  0.30363199643081434  0.5552102644032707  0.32299664446416343  1.0000
  O   O149      1.0  0.07088331907693339  0.9555505206464976  0.31543128771220236  1.0000
  O   O150      1.0  0.5709340023013668  0.551953529045493  0.18086065346331204  1.0000
  O   O151      1.0  0.5719841626981704  0.9499873007209195  0.1760824084420784  1.0000
  O   O152      1.0  0.09295147634946915  0.5523376869596945  0.33350890566726943  1.0000
  O   O153      1.0  0.41332382018036895  0.12820419121868226  0.10770741118067884  1.0000
  O   O154      1.0  0.9126575065605689  0.36723006252398194  0.3933521738492144  1.0000
  O   O155      1.0  0.8962135572949785  0.12432694822288522  0.3741865374109343  1.0000
  O   O156      1.0  0.4015665950401509  0.3830619102434827  0.10376068190795347  1.0000
  O   O157      1.0  0.4028341834675634  0.002929504507854166  0.10167525861873943  1.0000
  O   O158      1.0  0.8948133685986467  0.4961060949480107  0.4183441372783759  1.0000
  O   O159      1.0  0.9093220630995809  0.9913745350014327  0.40297288697439726  1.0000
  O   O160      1.0  0.41007520798922753  0.5091451552341775  0.08789872659505962  1.0000
  O   O161      1.0  0.40254842649702044  0.8767577384581978  0.096075810554235  1.0000
  O   O162      1.0  0.9050722609501948  0.6242634805809792  0.4168621666391829  1.0000
  O   O163      1.0  0.9127016096279424  0.8648230543054395  0.40266489108076864  1.0000
  O   O164      1.0  0.39794869138060357  0.6307442734437666  0.07915356307933316  1.0000
  O   O165      1.0  0.21002849860913972  0.11965481115397697  0.1145727980422473  1.0000
  O   O166      1.0  0.6936954078478774  0.38515352983869294  0.3941658505395125  1.0000
  O   O167      1.0  0.7020391090619518  0.1312356572107324  0.382773514949965  1.0000
  O   O168      1.0  0.21187996363879766  0.36940883119020634  0.12793006556863584  1.0000
  O   O169      1.0  0.19250373539006102  0.9975482409354604  0.09051255282977812  1.0000
  O   O170      1.0  0.6882235234536646  0.5111748357828338  0.40126173619320965  1.0000
  O   O171      1.0  0.7047718784882244  0.005408816243345797  0.4025235125016479  1.0000
  O   O172      1.0  0.19573933550739334  0.49695335141829106  0.09850015114424515  1.0000
  O   O173      1.0  0.19877828983244714  0.8742230561397142  0.09221035576543926  1.0000
  O   O174      1.0  0.6970633577217846  0.6338188524281336  0.3977217394939201  1.0000
  O   O175      1.0  0.7026619402845505  0.876540000128895  0.4000971520914688  1.0000
  O   O176      1.0  0.19846132606174907  0.6278601997079041  0.09162398955305229  1.0000
  O   O177      1.0  0.00019782230947773346  0.05893224501349927  0.30265249032267033  1.0000
  O   O178      1.0  0.4965804484220184  0.4539959206720783  0.18639686822396515  1.0000
  O   O179      1.0  0.4977493006325314  0.05070556226470469  0.20345638147336093  1.0000
  O   O180      1.0  0.0016600876054957193  0.45644151320727405  0.31924165295661255  1.0000
  O   O181      1.0  0.003593195243120016  0.849212641573788  0.28284352412078473  1.0000
  O   O182      1.0  0.4983915596534366  0.6611144258273818  0.1781662103399917  1.0000
  O   O183      1.0  0.5105798992635232  0.8334721202629854  0.18256101074536457  1.0000
  O   O184      1.0  0.001956675528930485  0.6377405819905946  0.29667204356717  1.0000
  O   O185      1.0  0.41100834048614165  0.7485623951364948  0.14796551955501658  1.0000
  O   O186      1.0  0.926118669617036  0.7436120492517646  0.32882911239731005  1.0000
  O   O187      1.0  0.19479376327616996  0.7538082760990032  0.1675656665592965  1.0000
  O   O188      1.0  0.6803049161940236  0.7538835180497594  0.33079851766059515  1.0000
  O   O189      1.0  0.21904694483216167  0.24254729236257563  0.05496892959604013  1.0000
  O   O190      1.0  0.7013637873824462  0.25765206202228297  0.44932379543840467  1.0000
  O   O191      1.0  0.39969355026685227  0.254355158823407  0.041559595520577516  1.0000
  O   O192      1.0  0.888927275183627  0.2428531840035377  0.461358353758456  1.0000
  C   C1        1.0  0.9817368240842272  0.15186717704122557  0.9649637201735499  1.0000
  C   C2        1.0  0.042002298010272485  0.13678455238242546  0.9203143886417608  1.0000
  C   C3        1.0  0.06584011017621502  0.07167361410626698  0.9218506106010733  1.0000
  C   C4        1.0  0.029412448475172215  0.021645300449248592  0.9680361641657809  1.0000
  C   C5        1.0  0.9691469744851454  0.03672792518241119  0.012685495771175876  1.0000
  C   C6        1.0  0.945309162304438  0.10183886342386719  0.01114927373825746  1.0000
  H   H1        1.0  0.9633476546483082  0.20209561519096783  0.9637786346137107  1.0000
  H   H2        1.0  0.07010443460987995  0.1753781111530846  0.8846847837516276  1.0000
  H   H3        1.0  0.11233141626587974  0.06003873472718386  0.8874060912707794  1.0000
  H   H4        1.0  0.047801617881561315  0.9714168623441238  0.9692212497256201  1.0000
  H   H5        1.0  0.9410448379199896  0.9981343663770496  0.0483151005877032  1.0000
  H   H6        1.0  0.8988178562639898  0.11347374275337532  0.045593793068551464  1.0000
